This is a test file...deal with it. 
New line.s